this file contains the logic of addition.
new line.
